tests/data/upgrade-models/sb10_p12uhs5_1247_trans_301/p12udt6981/OpenDSS/PV_Loads.dss
new load.load_p12ulv3331 conn=wye bus1=p12ulv3331.1.2 kv=0.208 vminpu=0.8 vmaxpu=1.2 model=1 kw=9.276990696160855 kvar=2.5794216555836496 phases=2
new load.load_p12ulv3332 conn=wye bus1=p12ulv3332.1.2 kv=0.208 vminpu=0.8 vmaxpu=1.2 model=1 kw=4.889451536775406 kvar=1.3804535825319604 phases=2
new load.load_p12ulv3336 conn=wye bus1=p12ulv3336.1.2 kv=0.208 vminpu=0.8 vmaxpu=1.2 model=1 kw=9.866293586197024 kvar=1.937336820167421 phases=2
new load.load_p12ulv3342 conn=wye bus1=p12ulv3342.1.2 kv=0.208 vminpu=0.8 vmaxpu=1.2 model=1 kw=8.1031882320804 kvar=0.36201442042372606 phases=2
new load.load_p12ulv3344 conn=wye bus1=p12ulv3344.1.2 kv=0.208 vminpu=0.8 vmaxpu=1.2 model=1 kw=2.425909917844425 kvar=0.5537812501282624 phases=2
new load.load_p12ulv3346 conn=wye bus1=p12ulv3346.1.2 kv=0.208 vminpu=0.8 vmaxpu=1.2 model=1 kw=6.229840901756206 kvar=1.6500610919115266 phases=2
new load.load_p12ulv3347 conn=wye bus1=p12ulv3347.1.2 kv=0.208 vminpu=0.8 vmaxpu=1.2 model=1 kw=4.730512175069936 kvar=1.8813988191060729 phases=2
new load.load_p12ulv3348 conn=wye bus1=p12ulv3348.1.2 kv=0.208 vminpu=0.8 vmaxpu=1.2 model=1 kw=2.9327539216933136 kvar=1.1005092218654307 phases=2
new load.load_p12ulv3350 conn=wye bus1=p12ulv3350.1.2 kv=0.208 vminpu=0.8 vmaxpu=1.2 model=1 kw=5.7857462687515975 kvar=2.0134164345506758 phases=2
new load.load_p12ulv3355 conn=wye bus1=p12ulv3355.1.2 kv=0.208 vminpu=0.8 vmaxpu=1.2 model=1 kw=2.731235934669347 kvar=0.6456993212638016 phases=2
new load.load_p12ulv3357 conn=wye bus1=p12ulv3357.1.2 kv=0.208 vminpu=0.8 vmaxpu=1.2 model=1 kw=1.791708858302562 kvar=1.3500740390684909 phases=2
new load.load_p12ulv3363 conn=wye bus1=p12ulv3363.1.2 kv=0.208 vminpu=0.8 vmaxpu=1.2 model=1 kw=5.213919833337116 kvar=1.1100614154948314 phases=2
new load.load_p12ulv3364 conn=wye bus1=p12ulv3364.1.2 kv=0.208 vminpu=0.8 vmaxpu=1.2 model=1 kw=7.5078776330221135 kvar=1.6931896995795526 phases=2
new load.load_p12ulv3367 conn=wye bus1=p12ulv3367.1.2 kv=0.208 vminpu=0.8 vmaxpu=1.2 model=1 kw=13.735253586479377 kvar=2.3372787878732626 phases=2
new load.load_p12ulv3378 conn=wye bus1=p12ulv3378.1.2 kv=0.208 vminpu=0.8 vmaxpu=1.2 model=1 kw=3.805812686180389 kvar=1.776363750185182 phases=2
new load.load_p12ulv3379 conn=wye bus1=p12ulv3379.1.2 kv=0.208 vminpu=0.8 vmaxpu=1.2 model=1 kw=2.4494615848409644 kvar=0.563222814572903 phases=2
new load.load_p12ulv3382 conn=wye bus1=p12ulv3382.1.2 kv=0.208 vminpu=0.8 vmaxpu=1.2 model=1 kw=4.998299015288007 kvar=0.6720657472849626 phases=2
new load.load_p12ulv3386 conn=wye bus1=p12ulv3386.1.2 kv=0.208 vminpu=0.8 vmaxpu=1.2 model=1 kw=3.445678792781085 kvar=1.6404185346793925 phases=2
new load.load_p12ulv3389 conn=wye bus1=p12ulv3389.1.2 kv=0.208 vminpu=0.8 vmaxpu=1.2 model=1 kw=3.445678792781085 kvar=1.6404185346793925 phases=2
new load.load_p12ulv3390 conn=wye bus1=p12ulv3390.1.2 kv=0.208 vminpu=0.8 vmaxpu=1.2 model=1 kw=9.92482967422214 kvar=1.837594902746287 phases=2
new load.load_p12ulv3391 conn=wye bus1=p12ulv3391.1.2 kv=0.208 vminpu=0.8 vmaxpu=1.2 model=1 kw=13.464576184054163 kvar=1.4617217358839796 phases=2
new load.load_p12ulv3394 conn=wye bus1=p12ulv3394.1.2 kv=0.208 vminpu=0.8 vmaxpu=1.2 model=1 kw=4.730512175069936 kvar=1.8813988191060729 phases=2
new load.load_p12ulv3395 conn=wye bus1=p12ulv3395.1.2 kv=0.208 vminpu=0.8 vmaxpu=1.2 model=1 kw=3.8043958968198255 kvar=1.257827407055768 phases=2
new load.load_p12ulv3397 conn=wye bus1=p12ulv3397.1.2 kv=0.208 vminpu=0.8 vmaxpu=1.2 model=1 kw=0.7278441406433157 kvar=0.27465746755689757 phases=2
new load.load_p12ulv3399 conn=wye bus1=p12ulv3399.1.2 kv=0.208 vminpu=0.8 vmaxpu=1.2 model=1 kw=9.10863847764801 kvar=1.8242369094332438 phases=2
new load.load_p12ulv3401 conn=wye bus1=p12ulv3401.1.2 kv=0.208 vminpu=0.8 vmaxpu=1.2 model=1 kw=9.084226349067512 kvar=2.302514111019552 phases=2
new load.load_p12ulv3406 conn=wye bus1=p12ulv3406.1.2 kv=0.208 vminpu=0.8 vmaxpu=1.2 model=1 kw=3.883797570838496 kvar=1.6996719157251106 phases=2
new load.load_p12ulv3407 conn=wye bus1=p12ulv3407.1.2 kv=0.208 vminpu=0.8 vmaxpu=1.2 model=1 kw=3.3573215535235956 kvar=0.08782684011642342 phases=2
new load.load_p12ulv3408 conn=wye bus1=p12ulv3408.1.2 kv=0.208 vminpu=0.8 vmaxpu=1.2 model=1 kw=2.742200791378547 kvar=0.8319838432375974 phases=2
new load.load_p12ulv3409 conn=wye bus1=p12ulv3409.1.2 kv=0.208 vminpu=0.8 vmaxpu=1.2 model=1 kw=4.585598244946638 kvar=1.0771507015618407 phases=2
new load.load_p12ulv3422 conn=wye bus1=p12ulv3422.1.2 kv=0.208 vminpu=0.8 vmaxpu=1.2 model=1 kw=1.4301088199485577 kvar=0.6512606616128789 phases=2
new load.load_p12ulv3428 conn=wye bus1=p12ulv3428.1.2 kv=0.208 vminpu=0.8 vmaxpu=1.2 model=1 kw=6.018823396872085 kvar=1.372657092765504 phases=2
new load.load_p12ulv3440 conn=wye bus1=p12ulv3440.1.2 kv=0.208 vminpu=0.8 vmaxpu=1.2 model=1 kw=8.69224632956435 kvar=1.233390288151073 phases=2
new load.load_p12ulv3442 conn=wye bus1=p12ulv3442.1.2 kv=0.208 vminpu=0.8 vmaxpu=1.2 model=1 kw=4.767625054597668 kvar=1.4499030281472156 phases=2
new load.load_p12ulv3444 conn=wye bus1=p12ulv3444.1.2 kv=0.208 vminpu=0.8 vmaxpu=1.2 model=1 kw=3.0630009913700373 kvar=1.0902240384576976 phases=2
new load.load_p12ulv3448 conn=wye bus1=p12ulv3448.1.2 kv=0.208 vminpu=0.8 vmaxpu=1.2 model=1 kw=0.6628513448567206 kvar=0.2697714637637273 phases=2
new load.load_p12ulv3451 conn=wye bus1=p12ulv3451.1.2 kv=0.208 vminpu=0.8 vmaxpu=1.2 model=1 kw=3.136564266410714 kvar=1.572286696463153 phases=2
new load.load_p12ulv3456 conn=wye bus1=p12ulv3456.1.2 kv=0.208 vminpu=0.8 vmaxpu=1.2 model=1 kw=5.534293880752674 kvar=1.2908402267135193 phases=2
new load.load_p12ulv3457 conn=wye bus1=p12ulv3457.1.2 kv=0.208 vminpu=0.8 vmaxpu=1.2 model=1 kw=4.34035627359939 kvar=0.236196772829885 phases=2
new load.load_p12ulv3458 conn=wye bus1=p12ulv3458.1.2 kv=0.208 vminpu=0.8 vmaxpu=1.2 model=1 kw=3.515869698872209 kvar=1.5704762061836801 phases=2
new load.load_p12ulv3460 conn=wye bus1=p12ulv3460.1.2 kv=0.208 vminpu=0.8 vmaxpu=1.2 model=1 kw=2.2342349465388205 kvar=1.1021636064873417 phases=2
new load.load_p12ulv3463 conn=wye bus1=p12ulv3463.1.2 kv=0.208 vminpu=0.8 vmaxpu=1.2 model=1 kw=2.583684035377484 kvar=1.5754395203903704 phases=2
new load.load_p12ulv3467 conn=wye bus1=p12ulv3467.1.2 kv=0.208 vminpu=0.8 vmaxpu=1.2 model=1 kw=4.320670893633899 kvar=1.518754608068169 phases=2
new load.load_p12ulv3474 conn=wye bus1=p12ulv3474.1.2 kv=0.208 vminpu=0.8 vmaxpu=1.2 model=1 kw=7.426966011304598 kvar=1.674078058222698 phases=2
new load.load_p12ulv3479 conn=wye bus1=p12ulv3479.1.2 kv=0.208 vminpu=0.8 vmaxpu=1.2 model=1 kw=2.7807213528896617 kvar=0.7197865140994147 phases=2
new load.load_p12ulv3480 conn=wye bus1=p12ulv3480.1.2 kv=0.208 vminpu=0.8 vmaxpu=1.2 model=1 kw=1.1001726786714765 kvar=0.7152072287758195 phases=2
new load.load_p12ulv3485 conn=wye bus1=p12ulv3479.1.2 kv=0.208 vminpu=0.8 vmaxpu=1.2 model=1 kw=2.9327539216933136 kvar=1.1005092218654307 phases=2
new load.load_p12ulv3487 conn=wye bus1=p12ulv3487.1.2 kv=0.208 vminpu=0.8 vmaxpu=1.2 model=1 kw=3.8398603372279023 kvar=1.2211948342558498 phases=2
new load.load_p12ulv3490 conn=wye bus1=p12ulv3490.1.2 kv=0.208 vminpu=0.8 vmaxpu=1.2 model=1 kw=0.7839932898074892 kvar=0.5105379556791113 phases=2
new load.load_p12ulv3502 conn=wye bus1=p12ulv3502.1.2 kv=0.208 vminpu=0.8 vmaxpu=1.2 model=1 kw=4.616955729483228 kvar=1.2615503660968075 phases=2
new load.load_p12ulv3504 conn=wye bus1=p12ulv3504.1.2 kv=0.208 vminpu=0.8 vmaxpu=1.2 model=1 kw=6.92079064734051 kvar=0.9171472241359416 phases=2
new load.load_p12ulv3506 conn=wye bus1=p12ulv3506.1.2 kv=0.208 vminpu=0.8 vmaxpu=1.2 model=1 kw=1.4301088199485577 kvar=0.6512606616128789 phases=2
new load.load_p12ulv3510 conn=wye bus1=p12ulv3510.1.2 kv=0.208 vminpu=0.8 vmaxpu=1.2 model=1 kw=4.0452475780347665 kvar=0.028265604689202743 phases=2
new load.load_p12ulv3511 conn=wye bus1=p12ulv3511.1.2 kv=0.208 vminpu=0.8 vmaxpu=1.2 model=1 kw=0.6173165418768054 kvar=0.25256655673466066 phases=2
new load.load_p12ulv3516 conn=wye bus1=p12ulv3516.1.2 kv=0.208 vminpu=0.8 vmaxpu=1.2 model=1 kw=3.7336583818210225 kvar=1.5145439464014088 phases=2
new load.load_p12ulv3519 conn=wye bus1=p12ulv3519.1.2 kv=0.208 vminpu=0.8 vmaxpu=1.2 model=1 kw=4.412569029507213 kvar=0.8633531841566298 phases=2
new load.load_p12ulv3521 conn=wye bus1=p12ulv3521.1.2 kv=0.208 vminpu=0.8 vmaxpu=1.2 model=1 kw=3.136564266410714 kvar=1.572286696463153 phases=2
new load.load_p12ulv3523 conn=wye bus1=p12ulv3523.1.2 kv=0.208 vminpu=0.8 vmaxpu=1.2 model=1 kw=2.410006226037253 kvar=0.5896323098732226 phases=2
new load.load_p12ulv3526 conn=wye bus1=p12ulv3526.1.2 kv=0.208 vminpu=0.8 vmaxpu=1.2 model=1 kw=5.161543869053883 kvar=0.2399107217635598 phases=2
new load.load_p12ulv3535 conn=wye bus1=p12ulv3535.1.2 kv=0.208 vminpu=0.8 vmaxpu=1.2 model=1 kw=2.39120205219121 kvar=0.8758927520248674 phases=2
new load.load_p12ulv3539 conn=wye bus1=p12ulv3539.1.2 kv=0.208 vminpu=0.8 vmaxpu=1.2 model=1 kw=8.997962463598574 kvar=1.7763515787979354 phases=2
new load.load_p12ulv3547 conn=wye bus1=p12ulv3547.1.2 kv=0.208 vminpu=0.8 vmaxpu=1.2 model=1 kw=3.4615647841563595 kvar=1.0763169622615438 phases=2
new load.load_p12ulv3548 conn=wye bus1=p12ulv3548.1.2 kv=0.208 vminpu=0.8 vmaxpu=1.2 model=1 kw=3.9571295054427926 kvar=1.2513373792238898 phases=2
new load.load_p12ulv3549 conn=wye bus1=p12ulv3549.1.2 kv=0.208 vminpu=0.8 vmaxpu=1.2 model=1 kw=12.736035964768258 kvar=2.3540460269574175 phases=2
new load.load_p12ulv3550 conn=wye bus1=p12ulv3550.1.2 kv=0.208 vminpu=0.8 vmaxpu=1.2 model=1 kw=2.990027507459333 kvar=0.6301325140170871 phases=2
new load.load_p12ulv3553 conn=wye bus1=p12ulv3553.1.2 kv=0.208 vminpu=0.8 vmaxpu=1.2 model=1 kw=4.692834858598011 kvar=1.7605625007631336 phases=2
new load.load_p12ulv3554 conn=wye bus1=p12ulv3554.1.2 kv=0.208 vminpu=0.8 vmaxpu=1.2 model=1 kw=3.8043958968198255 kvar=1.257827407055768 phases=2
new load.load_p12ulv3555 conn=wye bus1=p12ulv3555.1.2 kv=0.208 vminpu=0.8 vmaxpu=1.2 model=1 kw=3.4699997429416367 kvar=1.1065386844755105 phases=2
new load.load_p12ulv3556 conn=wye bus1=p12ulv3556.1.2 kv=0.208 vminpu=0.8 vmaxpu=1.2 model=1 kw=9.990852151632303 kvar=2.117287399762431 phases=2
new load.load_p12ulv3557 conn=wye bus1=p12ulv3557.1.2 kv=0.208 vminpu=0.8 vmaxpu=1.2 model=1 kw=4.924588977500645 kvar=0.20967301660474713 phases=2
new load.load_p12ulv3566 conn=wye bus1=p12ulv3566.1.2 kv=0.208 vminpu=0.8 vmaxpu=1.2 model=1 kw=6.229840901756206 kvar=1.6500610919115266 phases=2
new load.load_p12ulv3567 conn=wye bus1=p12ulv3567.1.2 kv=0.208 vminpu=0.8 vmaxpu=1.2 model=1 kw=8.39499084942621 kvar=1.344697557615996 phases=2
new load.load_p12ulv3568 conn=wye bus1=p12ulv3568.1.2 kv=0.208 vminpu=0.8 vmaxpu=1.2 model=1 kw=2.2804711037753083 kvar=0.7400386113151705 phases=2
new load.load_p12ulv3570 conn=wye bus1=p12ulv3570.1.2 kv=0.208 vminpu=0.8 vmaxpu=1.2 model=1 kw=7.421606052300628 kvar=1.0732068722619663 phases=2
new load.load_p12ulv3573 conn=wye bus1=p12ulv3573.1.2 kv=0.208 vminpu=0.8 vmaxpu=1.2 model=1 kw=1.54541106447827 kvar=0.6713657349582733 phases=2
new load.load_p12ulv3574 conn=wye bus1=p12ulv3574.1.2 kv=0.208 vminpu=0.8 vmaxpu=1.2 model=1 kw=8.075923415978934 kvar=0.7382381699934653 phases=2
new load.load_p12ulv3582 conn=wye bus1=p12ulv3582.1.2 kv=0.208 vminpu=0.8 vmaxpu=1.2 model=1 kw=2.731235934669347 kvar=0.6456993212638016 phases=2
new load.load_p12ulv3584 conn=wye bus1=p12ulv3584.1.2 kv=0.208 vminpu=0.8 vmaxpu=1.2 model=1 kw=0.4875369370315806 kvar=0.1991222211373307 phases=2
new load.load_p12ulv3585 conn=wye bus1=p12ulv3585.1.2 kv=0.208 vminpu=0.8 vmaxpu=1.2 model=1 kw=9.2338626300385 kvar=2.4525222087499214 phases=2
new load.load_p12ulv3589 conn=wye bus1=p12ulv3589.1.2 kv=0.208 vminpu=0.8 vmaxpu=1.2 model=1 kw=4.190669579077667 kvar=1.6769651830860184 phases=2
new load.load_p12ulv3592 conn=wye bus1=p12ulv3592.1.2 kv=0.208 vminpu=0.8 vmaxpu=1.2 model=1 kw=3.838231482149002 kvar=0.5701817976484987 phases=2
new load.load_p12ulv3595 conn=wye bus1=p12ulv3595.1.2 kv=0.208 vminpu=0.8 vmaxpu=1.2 model=1 kw=5.057741397506211 kvar=1.09132804532413 phases=2
new load.load_p12ulv3596 conn=wye bus1=p12ulv3596.1.2 kv=0.208 vminpu=0.8 vmaxpu=1.2 model=1 kw=2.1724897621071224 kvar=0.802953544016031 phases=2
new load.load_p12ulv3598 conn=wye bus1=p12ulv3598.1.2 kv=0.208 vminpu=0.8 vmaxpu=1.2 model=1 kw=2.39120205219121 kvar=0.8758927520248674 phases=2
new load.load_p12ulv3600 conn=wye bus1=p12ulv3600.1.2 kv=0.208 vminpu=0.8 vmaxpu=1.2 model=1 kw=13.943451134796678 kvar=2.970927320274567 phases=2
new load.load_p12ulv3601 conn=wye bus1=p12ulv3601.1.2 kv=0.208 vminpu=0.8 vmaxpu=1.2 model=1 kw=5.592346297409249 kvar=2.0649053282194756 phases=2
new load.load_p12ulv3602 conn=wye bus1=p12ulv3554.1.2 kv=0.208 vminpu=0.8 vmaxpu=1.2 model=1 kw=2.477653476924737 kvar=1.0238262838580057 phases=2
new load.load_p12ulv3604 conn=wye bus1=p12ulv3604.1.2 kv=0.208 vminpu=0.8 vmaxpu=1.2 model=1 kw=5.213919833337116 kvar=1.1100614154948314 phases=2
new load.load_p12ulv3606 conn=wye bus1=p12ulv3606.1.2 kv=0.208 vminpu=0.8 vmaxpu=1.2 model=1 kw=2.3632346342632347 kvar=1.3162449087046488 phases=2
new load.load_p12ulv3607 conn=wye bus1=p12ulv3607.1.2 kv=0.208 vminpu=0.8 vmaxpu=1.2 model=1 kw=6.611784004182857 kvar=1.3002192312541467 phases=2
new load.load_p12ulv3610 conn=wye bus1=p12ulv3610.1.2 kv=0.208 vminpu=0.8 vmaxpu=1.2 model=1 kw=2.1724897621071224 kvar=0.802953544016031 phases=2
new load.load_p12ulv3611 conn=wye bus1=p12ulv3611.1.2 kv=0.208 vminpu=0.8 vmaxpu=1.2 model=1 kw=12.748695842936126 kvar=2.5936318179228715 phases=2
new load.load_p12ulv3613 conn=wye bus1=p12ulv3613.1.2 kv=0.208 vminpu=0.8 vmaxpu=1.2 model=1 kw=2.463771007248418 kvar=1.5240390232763605 phases=2
new load.load_p12ulv3615 conn=wye bus1=p12ulv3615.1.2 kv=0.208 vminpu=0.8 vmaxpu=1.2 model=1 kw=7.081300235022827 kvar=2.433429314459308 phases=2
new load.load_p12ulv3617 conn=wye bus1=p12ulv3617.1.2 kv=0.208 vminpu=0.8 vmaxpu=1.2 model=1 kw=11.008058513695435 kvar=4.175213334048349 phases=2
new load.load_p12ulv3627 conn=wye bus1=p12ulv3627.1.2 kv=0.208 vminpu=0.8 vmaxpu=1.2 model=1 kw=3.0731682586090767 kvar=1.070606200462832 phases=2
new load.load_p12ulv3628 conn=wye bus1=p12ulv3628.1.2 kv=0.208 vminpu=0.8 vmaxpu=1.2 model=1 kw=1.210637164085238 kvar=0.7757289461635335 phases=2
new load.load_p12ulv3629 conn=wye bus1=p12ulv3629.1.2 kv=0.208 vminpu=0.8 vmaxpu=1.2 model=1 kw=3.2470495610762393 kvar=1.0413031554967556 phases=2
new load.load_p12ulv3630 conn=wye bus1=p12ulv3630.1.2 kv=0.208 vminpu=0.8 vmaxpu=1.2 model=1 kw=9.10178970524227 kvar=3.163123351803348 phases=2
new load.load_p12ulv3631 conn=wye bus1=p12ulv3631.1.2 kv=0.208 vminpu=0.8 vmaxpu=1.2 model=1 kw=5.031303676010168 kvar=1.005009648520714 phases=2
new load.load_p12ulv3632 conn=wye bus1=p12ulv3632.1.2 kv=0.208 vminpu=0.8 vmaxpu=1.2 model=1 kw=6.44625186012188 kvar=1.1530577278849592 phases=2
new load.load_p12ulv3633 conn=wye bus1=p12ulv3633.1.2 kv=0.208 vminpu=0.8 vmaxpu=1.2 model=1 kw=0.6844969297396972 kvar=0.2831268161784877 phases=2
new load.load_p12ulv3635 conn=wye bus1=p12ulv3635.1.2 kv=0.208 vminpu=0.8 vmaxpu=1.2 model=1 kw=1.3395991950971817 kvar=0.8331481798644669 phases=2
new load.load_p12ulv3637 conn=wye bus1=p12ulv3637.1.2 kv=0.208 vminpu=0.8 vmaxpu=1.2 model=1 kw=0.7278441406433157 kvar=0.27465746755689757 phases=2
new load.load_p12ulv3640 conn=wye bus1=p12ulv3640.1.2 kv=0.208 vminpu=0.8 vmaxpu=1.2 model=1 kw=3.3573215535235956 kvar=0.08782684011642342 phases=2
new load.load_p12ulv3643 conn=wye bus1=p12ulv3643.1.2 kv=0.208 vminpu=0.8 vmaxpu=1.2 model=1 kw=8.39499084942621 kvar=1.344697557615996 phases=2
new load.load_p12ulv3650 conn=wye bus1=p12ulv3650.1.2 kv=0.208 vminpu=0.8 vmaxpu=1.2 model=1 kw=4.0452475780347665 kvar=0.028265604689202743 phases=2
new load.load_p12ulv3653 conn=wye bus1=p12ulv3653.1.2 kv=0.208 vminpu=0.8 vmaxpu=1.2 model=1 kw=3.7567955207888515 kvar=1.315542239366208 phases=2
new load.load_p12ulv3655 conn=wye bus1=p12ulv3655.1.2 kv=0.208 vminpu=0.8 vmaxpu=1.2 model=1 kw=1.6749585702350231 kvar=0.6407817353475183 phases=2
new load.load_p12ulv3931 conn=wye bus1=p12ulv3931.1.2 kv=0.208 vminpu=0.8 vmaxpu=1.2 model=1 kw=5.7857462687515975 kvar=2.0134164345506758 phases=2
new load.load_p12ulv3932 conn=wye bus1=p12ulv3932.1.2 kv=0.208 vminpu=0.8 vmaxpu=1.2 model=1 kw=1.8189911241826715 kvar=0.9484085749822311 phases=2
new load.load_p12ulv3933 conn=wye bus1=p12ulv3933.1.2 kv=0.208 vminpu=0.8 vmaxpu=1.2 model=1 kw=2.2534890443001934 kvar=0.6686059663750036 phases=2
new load.load_p12ulv3934 conn=wye bus1=p12ulv3934.1.2 kv=0.208 vminpu=0.8 vmaxpu=1.2 model=1 kw=3.2470495610762393 kvar=1.0413031554967556 phases=2
new load.load_p12ulv3935 conn=wye bus1=p12ulv3935.1.2 kv=0.208 vminpu=0.8 vmaxpu=1.2 model=1 kw=15.368862893413311 kvar=3.998642812555091 phases=2
new load.load_p12ulv3936 conn=wye bus1=p12ulv3936.1.2 kv=0.208 vminpu=0.8 vmaxpu=1.2 model=1 kw=7.985738616970915 kvar=1.8338920204718032 phases=2
new load.load_p12ulv3937 conn=wye bus1=p12ulv3937.1.2 kv=0.208 vminpu=0.8 vmaxpu=1.2 model=1 kw=4.181826194524914 kvar=1.1333488685944841 phases=2
new load.load_p12ulv3938 conn=wye bus1=p12ulv3938.1.2 kv=0.208 vminpu=0.8 vmaxpu=1.2 model=1 kw=3.857693350482821 kvar=1.0083400997235559 phases=2
new load.load_p12ulv3939 conn=wye bus1=p12ulv3939.1.2 kv=0.208 vminpu=0.8 vmaxpu=1.2 model=1 kw=3.0600964704570037 kvar=2.34722396480596 phases=2
new load.load_p12ulv3940 conn=wye bus1=p12ulv3940.1.2 kv=0.208 vminpu=0.8 vmaxpu=1.2 model=1 kw=11.243057939592063 kvar=2.344823827055362 phases=2
new load.load_p12ulv3941 conn=wye bus1=p12ulv3941.1.2 kv=0.208 vminpu=0.8 vmaxpu=1.2 model=1 kw=4.313349541266562 kvar=0.5312352828565925 phases=2
new load.load_p12ulv3942 conn=wye bus1=p12ulv3942.1.2 kv=0.208 vminpu=0.8 vmaxpu=1.2 model=1 kw=2.477653476924737 kvar=1.0238262838580057 phases=2
new load.load_p12ulv3943 conn=wye bus1=p12ulv3943.1.2 kv=0.208 vminpu=0.8 vmaxpu=1.2 model=1 kw=5.208570033868335 kvar=1.431422857576019 phases=2
new load.load_p12ulv3944 conn=wye bus1=p12ulv3944.1.2 kv=0.208 vminpu=0.8 vmaxpu=1.2 model=1 kw=2.3296751814430685 kvar=0.8860404791695776 phases=2
new load.load_p12ulv3945 conn=wye bus1=p12ulv3945.1.2 kv=0.208 vminpu=0.8 vmaxpu=1.2 model=1 kw=6.576628126290273 kvar=1.8974840744165056 phases=2
new load.load_p12ulv3946 conn=wye bus1=p12ulv3946.1.2 kv=0.208 vminpu=0.8 vmaxpu=1.2 model=1 kw=2.477653476924737 kvar=1.0238262838580057 phases=2
new load.load_p12ulv3947 conn=wye bus1=p12ulv3947.1.2 kv=0.208 vminpu=0.8 vmaxpu=1.2 model=1 kw=5.592346297409249 kvar=2.0649053282194756 phases=2
new load.load_p12ulv3948 conn=wye bus1=p12ulv3948.1.2 kv=0.208 vminpu=0.8 vmaxpu=1.2 model=1 kw=3.5890005864985453 kvar=0.9594105278284141 phases=2
new load.load_p12ulv3949 conn=wye bus1=p12ulv3949.1.2 kv=0.208 vminpu=0.8 vmaxpu=1.2 model=1 kw=6.051155824753024 kvar=1.2959815382434907 phases=2
new load.load_p12ulv3950 conn=wye bus1=p12ulv3950.1.2 kv=0.208 vminpu=0.8 vmaxpu=1.2 model=1 kw=4.086031330922327 kvar=1.0938468429677766 phases=2
new load.load_p12ulv3951 conn=wye bus1=p12ulv3951.1.2 kv=0.208 vminpu=0.8 vmaxpu=1.2 model=1 kw=11.144102945725521 kvar=1.0531966376978965 phases=2
new load.load_p12ulv3952 conn=wye bus1=p12ulv3952.1.2 kv=0.208 vminpu=0.8 vmaxpu=1.2 model=1 kw=3.529440377456002 kvar=1.2837178591688085 phases=2
new load.load_p12ulv3953 conn=wye bus1=p12ulv3953.1.2 kv=0.208 vminpu=0.8 vmaxpu=1.2 model=1 kw=2.8755342915604425 kvar=1.545981141738302 phases=2
new load.load_p12ulv3954 conn=wye bus1=p12ulv3954.1.2 kv=0.208 vminpu=0.8 vmaxpu=1.2 model=1 kw=3.4048743863094457 kvar=1.176999696618193 phases=2
new load.load_p12ulv3955 conn=wye bus1=p12ulv3955.1.2 kv=0.208 vminpu=0.8 vmaxpu=1.2 model=1 kw=7.243991140734239 kvar=1.6202733033693992 phases=2
new load.load_p12ulv3956 conn=wye bus1=p12ulv3956.1.2 kv=0.208 vminpu=0.8 vmaxpu=1.2 model=1 kw=8.630017426496693 kvar=0.44772899267254485 phases=2
new load.load_p12ulv3957 conn=wye bus1=p12ulv3957.1.2 kv=0.208 vminpu=0.8 vmaxpu=1.2 model=1 kw=2.2293511412901053 kvar=1.1912467782166136 phases=2
new load.load_p12ulv3958 conn=wye bus1=p12ulv3958.1.2 kv=0.208 vminpu=0.8 vmaxpu=1.2 model=1 kw=1.8707485770033963 kvar=0.7260012109360746 phases=2
new load.load_p12ulv3959 conn=wye bus1=p12ulv3959.1.2 kv=0.208 vminpu=0.8 vmaxpu=1.2 model=1 kw=1.182458800025179 kvar=0.38709464279616707 phases=2
new load.load_p12ulv3960 conn=wye bus1=p12ulv3960.1.2 kv=0.208 vminpu=0.8 vmaxpu=1.2 model=1 kw=3.6644192688911095 kvar=1.5983193189777782 phases=2
new load.load_p12ulv3961 conn=wye bus1=p12ulv3961.1.2 kv=0.208 vminpu=0.8 vmaxpu=1.2 model=1 kw=9.92482967422214 kvar=1.837594902746287 phases=2
new load.load_p12ulv3962 conn=wye bus1=p12ulv3962.1.2 kv=0.208 vminpu=0.8 vmaxpu=1.2 model=1 kw=4.891988635928664 kvar=1.7194146663719307 phases=2
new load.load_p12ulv3963 conn=wye bus1=p12ulv3963.1.2 kv=0.208 vminpu=0.8 vmaxpu=1.2 model=1 kw=5.344425481592577 kvar=1.0066280342768523 phases=2
new load.load_p12ulv3964 conn=wye bus1=p12ulv3964.1.2 kv=0.208 vminpu=0.8 vmaxpu=1.2 model=1 kw=8.090711308330162 kvar=1.3913128790612461 phases=2
new load.load_p12ulv3965 conn=wye bus1=p12ulv3965.1.2 kv=0.208 vminpu=0.8 vmaxpu=1.2 model=1 kw=1.6524048588220004 kvar=0.6238983430216463 phases=2
new load.load_p12ulv3966 conn=wye bus1=p12ulv3966.1.2 kv=0.208 vminpu=0.8 vmaxpu=1.2 model=1 kw=6.811478901848384 kvar=1.2549622459168974 phases=2
new load.load_p12ulv3967 conn=wye bus1=p12ulv3967.1.2 kv=0.208 vminpu=0.8 vmaxpu=1.2 model=1 kw=6.140821659261861 kvar=1.4924401903958615 phases=2
new load.load_p12ulv3968 conn=wye bus1=p12ulv3968.1.2 kv=0.208 vminpu=0.8 vmaxpu=1.2 model=1 kw=0.7079157428191405 kvar=0.2969130822979559 phases=2
new load.load_p12ulv3969 conn=wye bus1=p12ulv3969.1.2 kv=0.208 vminpu=0.8 vmaxpu=1.2 model=1 kw=3.6714762454586416 kvar=1.308749954860884 phases=2
new load.load_p12ulv3970 conn=wye bus1=p12ulv3970.1.2 kv=0.208 vminpu=0.8 vmaxpu=1.2 model=1 kw=7.243991140734239 kvar=1.6202733033693992 phases=2
new load.load_p12ulv3971 conn=wye bus1=p12ulv3971.1.2 kv=0.208 vminpu=0.8 vmaxpu=1.2 model=1 kw=7.426966011304598 kvar=1.674078058222698 phases=2
new load.load_p12ulv3972 conn=wye bus1=p12ulv3972.1.2 kv=0.208 vminpu=0.8 vmaxpu=1.2 model=1 kw=2.3304196545904317 kvar=1.1224290031053872 phases=2
new load.load_p12ulv3973 conn=wye bus1=p12ulv3973.1.2 kv=0.208 vminpu=0.8 vmaxpu=1.2 model=1 kw=4.061478847598235 kvar=2.0190411298235826 phases=2
new load.load_p12ulv3974 conn=wye bus1=p12ulv3974.1.2 kv=0.208 vminpu=0.8 vmaxpu=1.2 model=1 kw=11.608857142291761 kvar=3.116692227461879 phases=2
new load.load_p12ulv3975 conn=wye bus1=p12ulv3975.1.2 kv=0.208 vminpu=0.8 vmaxpu=1.2 model=1 kw=2.7759516594765854 kvar=1.1237030033820272 phases=2
new load.load_p12ulv3976 conn=wye bus1=p12ulv3976.1.2 kv=0.208 vminpu=0.8 vmaxpu=1.2 model=1 kw=7.8292689698079725 kvar=1.6297269994329557 phases=2
new load.load_p12ulv3977 conn=wye bus1=p12ulv3977.1.2 kv=0.208 vminpu=0.8 vmaxpu=1.2 model=1 kw=3.7567955207888515 kvar=1.315542239366208 phases=2
new load.load_p12ulv3978 conn=wye bus1=p12ulv3978.1.2 kv=0.208 vminpu=0.8 vmaxpu=1.2 model=1 kw=9.934267718787018 kvar=1.5059892464415592 phases=2
new load.load_p12ulv3979 conn=wye bus1=p12ulv3979.1.2 kv=0.208 vminpu=0.8 vmaxpu=1.2 model=1 kw=2.156093990062165 kvar=0.8279026939173333 phases=2
new load.load_p12ulv3980 conn=wye bus1=p12ulv3980.1.2 kv=0.208 vminpu=0.8 vmaxpu=1.2 model=1 kw=3.1848135803419253 kvar=0.9336328166502599 phases=2
new load.load_p12ulv3981 conn=wye bus1=p12ulv3981.1.2 kv=0.208 vminpu=0.8 vmaxpu=1.2 model=1 kw=13.735253586479377 kvar=2.3372787878732626 phases=2
new load.load_p12ulv3982 conn=wye bus1=p12ulv3982.1.2 kv=0.208 vminpu=0.8 vmaxpu=1.2 model=1 kw=1.8609767716583767 kvar=0.5315941051605987 phases=2
new load.load_p12ulv3983 conn=wye bus1=p12ulv3983.1.2 kv=0.208 vminpu=0.8 vmaxpu=1.2 model=1 kw=2.6108969284498076 kvar=1.0385604047079526 phases=2
new load.load_p12ulv3984 conn=wye bus1=p12ulv3984.1.2 kv=0.208 vminpu=0.8 vmaxpu=1.2 model=1 kw=2.9610511101184236 kvar=1.2304449827699944 phases=2
new load.load_p12ulv3985 conn=wye bus1=p12ulv3985.1.2 kv=0.208 vminpu=0.8 vmaxpu=1.2 model=1 kw=2.0986596609986568 kvar=0.7221192734553241 phases=2
new load.load_p12ulv3986 conn=wye bus1=p12ulv3986.1.2 kv=0.208 vminpu=0.8 vmaxpu=1.2 model=1 kw=4.284627700510879 kvar=1.6632642983442483 phases=2
new load.load_p12ulv3987 conn=wye bus1=p12ulv3961.1.2 kv=0.208 vminpu=0.8 vmaxpu=1.2 model=1 kw=4.891988635928664 kvar=1.7194146663719307 phases=2
new load.load_p12ulv3988 conn=wye bus1=p12ulv3988.1.2 kv=0.208 vminpu=0.8 vmaxpu=1.2 model=1 kw=4.065490695474128 kvar=1.6172622498208233 phases=2
new load.load_p12ulv3989 conn=wye bus1=p12ulv3548.1.2 kv=0.208 vminpu=0.8 vmaxpu=1.2 model=1 kw=2.787433156776498 kvar=1.3564135189166695 phases=2
new load.load_p12ulv3990 conn=wye bus1=p12ulv3990.1.2 kv=0.208 vminpu=0.8 vmaxpu=1.2 model=1 kw=2.0986596609986568 kvar=0.7221192734553241 phases=2
new load.load_p12ulv3991 conn=wye bus1=p12ulv3991.1.2 kv=0.208 vminpu=0.8 vmaxpu=1.2 model=1 kw=2.9327539216933136 kvar=1.1005092218654307 phases=2
new load.load_p12ulv3992 conn=wye bus1=p12ulv3992.1.2 kv=0.208 vminpu=0.8 vmaxpu=1.2 model=1 kw=5.161543869053883 kvar=0.2399107217635598 phases=2
new load.load_p12ulv3993 conn=wye bus1=p12ulv3993.1.2 kv=0.208 vminpu=0.8 vmaxpu=1.2 model=1 kw=2.4849153105974766 kvar=0.8990416854239508 phases=2
new load.load_p12ulv3994 conn=wye bus1=p12ulv3994.1.2 kv=0.208 vminpu=0.8 vmaxpu=1.2 model=1 kw=4.190669579077667 kvar=1.6769651830860184 phases=2
new load.load_p12ulv3995 conn=wye bus1=p12ulv3995.1.2 kv=0.208 vminpu=0.8 vmaxpu=1.2 model=1 kw=1.8707485770033963 kvar=0.7260012109360746 phases=2
new load.load_p12ulv3996 conn=wye bus1=p12ulv3996.1.2 kv=0.208 vminpu=0.8 vmaxpu=1.2 model=1 kw=4.313349541266562 kvar=0.5312352828565925 phases=2
new load.load_p12ulv3997 conn=wye bus1=p12ulv3997.1.2 kv=0.208 vminpu=0.8 vmaxpu=1.2 model=1 kw=7.889509199568337 kvar=1.606520097672938 phases=2
new load.load_p12ulv3998 conn=wye bus1=p12ulv3998.1.2 kv=0.208 vminpu=0.8 vmaxpu=1.2 model=1 kw=2.7007374227447323 kvar=0.9828813930974123 phases=2
new load.load_p12ulv3999 conn=wye bus1=p12ulv3999.1.2 kv=0.208 vminpu=0.8 vmaxpu=1.2 model=1 kw=4.190669579077667 kvar=1.6769651830860184 phases=2
new load.load_p12ulv4000 conn=wye bus1=p12ulv4000.1.2 kv=0.208 vminpu=0.8 vmaxpu=1.2 model=1 kw=1.3048166005831472 kvar=0.42403491641367697 phases=2
new load.load_p12ulv4001 conn=wye bus1=p12ulv4001.1.2 kv=0.208 vminpu=0.8 vmaxpu=1.2 model=1 kw=3.805812686180389 kvar=1.776363750185182 phases=2
new load.load_p12ulv4002 conn=wye bus1=p12ulv4002.1.2 kv=0.208 vminpu=0.8 vmaxpu=1.2 model=1 kw=4.685459895924987 kvar=1.5454016925306093 phases=2
new load.load_p12ulv4003 conn=wye bus1=p12ulv4003.1.2 kv=0.208 vminpu=0.8 vmaxpu=1.2 model=1 kw=3.6644192688911095 kvar=1.5983193189777782 phases=2
new load.load_p12ulv4004 conn=wye bus1=p12ulv4004.1.2 kv=0.208 vminpu=0.8 vmaxpu=1.2 model=1 kw=8.124988179265339 kvar=0.5928757236574401 phases=2
new load.load_p12ulv4005 conn=wye bus1=p12ulv3960.1.2 kv=0.208 vminpu=0.8 vmaxpu=1.2 model=1 kw=3.883797570838496 kvar=1.6996719157251106 phases=2
new load.load_p12ulv4006 conn=wye bus1=p12ulv4006.1.2 kv=0.208 vminpu=0.8 vmaxpu=1.2 model=1 kw=2.4177012865612566 kvar=0.9248980153639199 phases=2
new load.load_p12ulv4007 conn=wye bus1=p12ulv4007.1.2.3 kv=0.48 vminpu=0.8 vmaxpu=1.2 model=1 kw=18.55113719086456 kvar=1.4591724276127824 phases=3
new load.load_p12ulv4008 conn=wye bus1=p12ulv4008.1.2 kv=0.208 vminpu=0.8 vmaxpu=1.2 model=1 kw=1.915671556141208 kvar=0.5544477232156639 phases=2
new load.load_p12ulv4009 conn=wye bus1=p12ulv4009.1.2 kv=0.208 vminpu=0.8 vmaxpu=1.2 model=1 kw=2.003856628420758 kvar=0.914580355102151 phases=2
new load.load_p12ulv4010 conn=wye bus1=p12ulv4010.1.2 kv=0.208 vminpu=0.8 vmaxpu=1.2 model=1 kw=2.39120205219121 kvar=0.8758927520248674 phases=2
new load.load_p12ulv4011 conn=wye bus1=p12ulv4011.1.2 kv=0.208 vminpu=0.8 vmaxpu=1.2 model=1 kw=2.427731902647464 kvar=0.8150884203033032 phases=2
new load.load_p12ulv4012 conn=wye bus1=p12ulv4012.1.2 kv=0.208 vminpu=0.8 vmaxpu=1.2 model=1 kw=3.1385375280850636 kvar=1.118019440239588 phases=2
new load.load_p12ulv4013 conn=wye bus1=p12ulv4013.1.2 kv=0.208 vminpu=0.8 vmaxpu=1.2 model=1 kw=3.3573215535235956 kvar=0.08782684011642342 phases=2
new load.load_p12ulv4014 conn=wye bus1=p12ulv4014.1.2 kv=0.208 vminpu=0.8 vmaxpu=1.2 model=1 kw=8.075923415978934 kvar=0.7382381699934653 phases=2
new load.load_p12ulv4015 conn=wye bus1=p12ulv4015.1.2 kv=0.208 vminpu=0.8 vmaxpu=1.2 model=1 kw=4.595665456336308 kvar=1.2219446431394907 phases=2
new load.load_p12ulv4016 conn=wye bus1=p12ulv4016.1.2 kv=0.208 vminpu=0.8 vmaxpu=1.2 model=1 kw=8.179553728630717 kvar=0.37628517588162663 phases=2
new load.load_p12ulv4017 conn=wye bus1=p12ulv4017.1.2 kv=0.208 vminpu=0.8 vmaxpu=1.2 model=1 kw=3.445678792781085 kvar=1.6404185346793925 phases=2
new load.load_p12ulv4018 conn=wye bus1=p12ulv4018.1.2 kv=0.208 vminpu=0.8 vmaxpu=1.2 model=1 kw=7.17594026568955 kvar=0.2607538617437572 phases=2
new load.load_p12ulv4019 conn=wye bus1=p12ulv4019.1.2 kv=0.208 vminpu=0.8 vmaxpu=1.2 model=1 kw=2.488020244669249 kvar=0.21297406120020693 phases=2
new load.load_p12ulv4020 conn=wye bus1=p12ulv4020.1.2 kv=0.208 vminpu=0.8 vmaxpu=1.2 model=1 kw=2.7007374227447323 kvar=0.9828813930974123 phases=2
new load.load_p12ulv4021 conn=wye bus1=p12ulv4021.1.2 kv=0.208 vminpu=0.8 vmaxpu=1.2 model=1 kw=2.583684035377484 kvar=1.5754395203903704 phases=2
...
